<?xml version="1.0" encoding="UTF-8"?>

<!-- generated on 2025-12-23T16:41:10.339124+07:00 by Eclipse SUMO netedit 1.25.0
<neteditConfiguration xmlns:xsi="http://www.w3.org/2001/XMLSchema-instance" xsi:noNamespaceSchemaLocation="http://sumo.dlr.de/xsd/neteditConfiguration.xsd">

    <input>
        <sumo-net-file value="C:\Users\ADMIN\Desktop\SUMO\baor\bao.net.xml"/>
    </input>

    <output>
        <output-file value="C:\Users\ADMIN\Desktop\SUMO\baor\bao.net.xml"/>
    </output>

    <processing>
        <geometry.min-radius.fix.railways value="false"/>
        <geometry.avoid-overlap value="false"/>
        <geometry.max-grade.fix value="false"/>
        <offset.disable-normalization value="true"/>
        <lefthand value="0"/>
    </processing>

    <junctions>
        <no-turnarounds value="true"/>
        <junctions.corner-detail value="5"/>
        <junctions.limit-turn-speed value="5.50"/>
        <rectangular-lane-cut value="0"/>
    </junctions>

    <pedestrian>
        <walkingareas value="0"/>
    </pedestrian>

</neteditConfiguration>
-->

<net version="1.20" junctionCornerDetail="5" limitTurnSpeed="5.50" avoidOverlap="0" xmlns:xsi="http://www.w3.org/2001/XMLSchema-instance" xsi:noNamespaceSchemaLocation="http://sumo.dlr.de/xsd/net_file.xsd">

    <location netOffset="-579433.12,-2325432.24" convBoundary="0.00,0.00,1137.48,1101.87" origBoundary="105.764437,21.027942,105.775385,21.037882" projParameter="+proj=utm +zone=48 +ellps=WGS84 +datum=WGS84 +units=m +no_defs"/>

    <type id="highway.footway" priority="1" numLanes="1" speed="2.78" allow="pedestrian" oneway="1" width="2.00"/>
    <type id="highway.residential" priority="3" numLanes="1" speed="13.89" disallow="tram rail_urban rail rail_electric rail_fast ship container cable_car subway aircraft wheelchair scooter drone" oneway="0"/>
    <type id="highway.secondary" priority="11" numLanes="1" speed="27.78" disallow="tram rail_urban rail rail_electric rail_fast ship container cable_car subway aircraft wheelchair scooter drone" oneway="0"/>
    <type id="highway.secondary_link" priority="6" numLanes="1" speed="22.22" disallow="tram rail_urban rail rail_electric rail_fast ship container cable_car subway aircraft wheelchair scooter drone" oneway="0"/>
    <type id="highway.service" priority="1" numLanes="1" speed="5.56" allow="pedestrian delivery bicycle" oneway="0"/>
    <type id="highway.tertiary" priority="10" numLanes="1" speed="22.22" disallow="tram rail_urban rail rail_electric rail_fast ship container cable_car subway aircraft wheelchair scooter drone" oneway="0"/>

    <edge id=":10222796214_0" function="internal">
        <lane id=":10222796214_0_0" index="0" disallow="tram rail_urban rail rail_electric rail_fast ship container cable_car subway aircraft wheelchair scooter drone" speed="16.67" length="0.65" shape="424.44,9.34 424.49,9.65 424.53,9.87 424.55,10.09 424.56,10.41"/>
        <lane id=":10222796214_0_1" index="1" disallow="tram rail_urban rail rail_electric rail_fast ship container cable_car subway aircraft wheelchair scooter drone" speed="16.67" length="0.65" shape="421.29,9.92 421.33,10.11 421.34,10.24 421.36,10.37 421.37,10.56"/>
        <lane id=":10222796214_0_2" index="2" disallow="tram rail_urban rail rail_electric rail_fast ship container cable_car subway aircraft wheelchair scooter drone" speed="16.67" length="0.65" shape="418.14,10.50 418.16,10.57 418.16,10.61 418.17,10.66 418.17,10.72"/>
    </edge>
    <edge id=":10222924430_0" function="internal">
        <lane id=":10222924430_0_0" index="0" allow="pedestrian delivery bicycle" speed="5.56" length="3.77" shape="601.87,582.35 601.02,578.68"/>
    </edge>
    <edge id=":10222924430_1" function="internal">
        <lane id=":10222924430_1_0" index="0" allow="pedestrian delivery bicycle" speed="3.65" length="1.44" shape="601.87,582.35 602.34,580.99"/>
    </edge>
    <edge id=":10222924430_4" function="internal">
        <lane id=":10222924430_4_0" index="0" allow="pedestrian delivery bicycle" speed="3.65" length="3.23" shape="602.34,580.99 603.01,580.40 603.88,580.58 604.96,581.53"/>
    </edge>
    <edge id=":10222924430_2" function="internal">
        <lane id=":10222924430_2_0" index="0" allow="pedestrian delivery bicycle" speed="5.56" length="3.56" shape="604.16,578.06 604.96,581.53"/>
    </edge>
    <edge id=":10222924430_3" function="internal">
        <lane id=":10222924430_3_0" index="0" allow="pedestrian delivery bicycle" speed="3.65" length="1.44" shape="604.16,578.06 603.61,579.39"/>
    </edge>
    <edge id=":10222924430_5" function="internal">
        <lane id=":10222924430_5_0" index="0" allow="pedestrian delivery bicycle" speed="3.65" length="3.23" shape="603.61,579.39 602.90,579.94 602.04,579.70 601.02,578.68"/>
    </edge>
    <edge id=":10222924470_0" function="internal">
        <lane id=":10222924470_0_0" index="0" allow="pedestrian delivery bicycle" speed="5.56" length="4.72" shape="664.35,600.68 663.41,596.05"/>
    </edge>
    <edge id=":10222924470_1" function="internal">
        <lane id=":10222924470_1_0" index="0" allow="pedestrian delivery bicycle" speed="3.65" length="1.44" shape="664.35,600.68 664.89,599.34"/>
    </edge>
    <edge id=":10222924470_4" function="internal">
        <lane id=":10222924470_4_0" index="0" allow="pedestrian delivery bicycle" speed="3.65" length="3.23" shape="664.89,599.34 665.59,598.78 666.46,599.01 667.49,600.02"/>
    </edge>
    <edge id=":10222924470_2" function="internal">
        <lane id=":10222924470_2_0" index="0" allow="pedestrian delivery bicycle" speed="5.56" length="4.67" shape="666.55,595.44 667.49,600.02"/>
    </edge>
    <edge id=":10222924470_3" function="internal">
        <lane id=":10222924470_3_0" index="0" allow="pedestrian delivery bicycle" speed="3.65" length="1.44" shape="666.55,595.44 666.00,596.77"/>
    </edge>
    <edge id=":10222924470_5" function="internal">
        <lane id=":10222924470_5_0" index="0" allow="pedestrian delivery bicycle" speed="3.65" length="3.23" shape="666.00,596.77 665.29,597.31 664.43,597.07 663.41,596.05"/>
    </edge>
    <edge id=":10222924471_0" function="internal">
        <lane id=":10222924471_0_0" index="0" allow="pedestrian delivery bicycle" speed="5.56" length="4.48" shape="744.57,583.44 743.42,579.12"/>
    </edge>
    <edge id=":10222924471_1" function="internal">
        <lane id=":10222924471_1_0" index="0" allow="pedestrian delivery bicycle" speed="3.65" length="1.44" shape="744.57,583.44 745.03,582.08"/>
    </edge>
    <edge id=":10222924471_4" function="internal">
        <lane id=":10222924471_4_0" index="0" allow="pedestrian delivery bicycle" speed="3.65" length="3.23" shape="745.03,582.08 745.71,581.49 746.58,581.67 747.66,582.63"/>
    </edge>
    <edge id=":10222924471_2" function="internal">
        <lane id=":10222924471_2_0" index="0" allow="pedestrian delivery bicycle" speed="5.56" length="4.48" shape="746.52,578.30 747.66,582.63"/>
    </edge>
    <edge id=":10222924471_3" function="internal">
        <lane id=":10222924471_3_0" index="0" allow="pedestrian delivery bicycle" speed="3.65" length="1.44" shape="746.52,578.30 746.05,579.66"/>
    </edge>
    <edge id=":10222924471_5" function="internal">
        <lane id=":10222924471_5_0" index="0" allow="pedestrian delivery bicycle" speed="3.65" length="3.23" shape="746.05,579.66 745.38,580.25 744.50,580.07 743.42,579.12"/>
    </edge>
    <edge id=":11112149889_0" function="internal">
        <lane id=":11112149889_0_0" index="0" allow="pedestrian delivery bicycle" speed="5.56" length="4.94" shape="422.01,661.54 420.59,656.80"/>
    </edge>
    <edge id=":11112149889_1" function="internal">
        <lane id=":11112149889_1_0" index="0" allow="pedestrian delivery bicycle" speed="3.65" length="1.44" shape="422.01,661.54 422.44,660.16"/>
    </edge>
    <edge id=":11112149889_4" function="internal">
        <lane id=":11112149889_4_0" index="0" allow="pedestrian delivery bicycle" speed="3.65" length="3.23" shape="422.44,660.16 423.09,659.55 423.97,659.71 425.08,660.64"/>
    </edge>
    <edge id=":11112149889_2" function="internal">
        <lane id=":11112149889_2_0" index="0" allow="pedestrian delivery bicycle" speed="5.56" length="4.98" shape="423.65,655.87 425.08,660.64"/>
    </edge>
    <edge id=":11112149889_3" function="internal">
        <lane id=":11112149889_3_0" index="0" allow="pedestrian delivery bicycle" speed="3.65" length="1.44" shape="423.65,655.87 423.24,657.25"/>
    </edge>
    <edge id=":11112149889_5" function="internal">
        <lane id=":11112149889_5_0" index="0" allow="pedestrian delivery bicycle" speed="3.65" length="3.23" shape="423.24,657.25 422.59,657.87 421.71,657.72 420.59,656.80"/>
    </edge>
    <edge id=":11502116385_0" function="internal">
        <lane id=":11502116385_0_0" index="0" disallow="tram rail_urban rail rail_electric rail_fast ship container cable_car subway aircraft wheelchair scooter drone" speed="6.85" length="10.24" shape="740.28,566.12 740.06,563.32 740.79,561.13 742.48,559.56 745.13,558.60"/>
        <lane id=":11502116385_0_1" index="1" disallow="tram rail_urban rail rail_electric rail_fast ship container cable_car subway aircraft wheelchair scooter drone" speed="6.06" length="7.80" shape="740.28,566.12 740.36,564.68 741.31,563.47 743.11,562.49 745.78,561.73"/>
    </edge>
    <edge id=":11502116385_2" function="internal">
        <lane id=":11502116385_2_0" index="0" disallow="tram rail_urban rail rail_electric rail_fast ship container cable_car subway aircraft wheelchair scooter drone" speed="3.65" length="4.67" shape="740.28,566.12 740.80,564.77 741.49,564.21 742.36,564.42 743.40,565.42"/>
    </edge>
    <edge id=":11502116385_3" function="internal">
        <lane id=":11502116385_3_0" index="0" disallow="tram rail_urban rail rail_electric rail_fast ship container cable_car subway aircraft wheelchair scooter drone" speed="27.78" length="9.40" shape="735.28,557.37 744.48,555.47"/>
        <lane id=":11502116385_3_1" index="1" disallow="tram rail_urban rail rail_electric rail_fast ship container cable_car subway aircraft wheelchair scooter drone" speed="27.78" length="9.40" shape="735.92,560.51 745.13,558.60"/>
        <lane id=":11502116385_3_2" index="2" disallow="tram rail_urban rail rail_electric rail_fast ship container cable_car subway aircraft wheelchair scooter drone" speed="27.78" length="9.40" shape="736.57,563.64 745.78,561.73"/>
    </edge>
    <edge id=":11502116385_6" function="internal">
        <lane id=":11502116385_6_0" index="0" disallow="tram rail_urban rail rail_electric rail_fast ship container cable_car subway aircraft wheelchair scooter drone" speed="6.12" length="7.78" shape="736.57,563.64 739.30,563.27 741.35,563.45 742.72,564.16 743.40,565.42"/>
    </edge>
    <edge id=":11736891013_0" function="internal">
        <lane id=":11736891013_0_0" index="0" allow="pedestrian delivery bicycle" speed="5.01" length="5.04" shape="585.16,662.36 583.85,662.81 583.01,663.58 582.65,664.65 582.76,666.03"/>
    </edge>
    <edge id=":11736891013_1" function="internal">
        <lane id=":11736891013_1_0" index="0" allow="pedestrian delivery bicycle" speed="3.65" length="4.67" shape="585.16,662.36 583.83,661.80 583.29,661.09 583.53,660.23 584.56,659.22"/>
    </edge>
    <edge id=":11736891013_2" function="internal">
        <lane id=":11736891013_2_0" index="0" allow="pedestrian delivery bicycle" speed="5.10" length="5.10" shape="580.78,656.80 581.25,658.09 582.03,658.92 583.14,659.30 584.56,659.22"/>
    </edge>
    <edge id=":11736891013_3" function="internal">
        <lane id=":11736891013_3_0" index="0" disallow="tram rail_urban rail rail_electric rail_fast ship container cable_car subway aircraft wheelchair scooter drone" speed="16.67" length="9.51" shape="580.78,656.80 582.76,666.03"/>
        <lane id=":11736891013_3_1" index="1" disallow="tram rail_urban rail rail_electric rail_fast ship container cable_car subway aircraft wheelchair scooter drone" speed="16.67" length="9.51" shape="577.65,657.44 579.64,666.74"/>
        <lane id=":11736891013_3_2" index="2" disallow="tram rail_urban rail rail_electric rail_fast ship container cable_car subway aircraft wheelchair scooter drone" speed="16.67" length="9.51" shape="574.51,658.07 576.52,667.44"/>
    </edge>
    <edge id=":11789453108_0" function="internal">
        <lane id=":11789453108_0_0" index="0" allow="pedestrian delivery bicycle" speed="4.91" length="4.47" shape="605.01,581.72 605.47,582.72 606.22,583.34 607.26,583.60 608.59,583.48"/>
    </edge>
    <edge id=":11789453108_1" function="internal">
        <lane id=":11789453108_1_0" index="0" allow="pedestrian delivery bicycle" speed="3.65" length="4.67" shape="605.01,581.72 604.55,583.09 603.88,583.68 603.01,583.50 601.92,582.55"/>
    </edge>
    <edge id=":11789453108_2" function="internal">
        <lane id=":11789453108_2_0" index="0" allow="pedestrian delivery bicycle" speed="4.72" length="4.37" shape="599.44,585.47 600.75,585.02 601.60,584.39 601.99,583.56 601.92,582.55"/>
    </edge>
    <edge id=":11789453108_3" function="internal">
        <lane id=":11789453108_3_0" index="0" disallow="tram rail_urban rail rail_electric rail_fast ship container cable_car subway aircraft wheelchair scooter drone" speed="27.78" length="9.30" shape="599.44,585.47 608.59,583.48"/>
        <lane id=":11789453108_3_1" index="1" disallow="tram rail_urban rail rail_electric rail_fast ship container cable_car subway aircraft wheelchair scooter drone" speed="27.78" length="9.30" shape="600.15,588.59 609.23,586.61"/>
        <lane id=":11789453108_3_2" index="2" disallow="tram rail_urban rail rail_electric rail_fast ship container cable_car subway aircraft wheelchair scooter drone" speed="27.78" length="9.30" shape="600.86,591.71 609.87,589.75"/>
    </edge>
    <edge id=":12846434803_0" function="internal">
        <lane id=":12846434803_0_0" index="0" allow="pedestrian delivery bicycle" speed="5.56" length="0.30" shape="592.38,660.97 592.08,661.03"/>
    </edge>
    <edge id=":12846434803_1" function="internal">
        <lane id=":12846434803_1_0" index="0" allow="pedestrian delivery bicycle" speed="5.56" length="0.30" shape="591.48,657.89 591.77,657.83"/>
    </edge>
    <edge id=":12846434804_0" function="internal">
        <lane id=":12846434804_0_0" index="0" allow="pedestrian delivery bicycle" speed="5.56" length="0.30" shape="612.47,657.09 612.18,657.15"/>
    </edge>
    <edge id=":12846434804_1" function="internal">
        <lane id=":12846434804_1_0" index="0" allow="pedestrian delivery bicycle" speed="5.56" length="0.30" shape="611.57,654.01 611.86,653.95"/>
    </edge>
    <edge id=":13068111563_0" function="internal">
        <lane id=":13068111563_0_0" index="0" allow="pedestrian delivery bicycle" speed="5.56" length="10.58" shape="645.90,535.52 638.31,542.90"/>
    </edge>
    <edge id=":13068111563_1" function="internal">
        <lane id=":13068111563_1_0" index="0" allow="pedestrian delivery bicycle" speed="5.56" length="13.72" shape="645.90,535.52 642.58,538.01 639.89,538.37 637.86,536.59 636.47,532.67"/>
    </edge>
    <edge id=":13068111563_2" function="internal">
        <lane id=":13068111563_2_0" index="0" allow="pedestrian delivery bicycle" speed="3.65" length="4.67" shape="645.90,535.52 644.49,535.79 643.64,535.49 643.37,534.64 643.67,533.23"/>
    </edge>
    <edge id=":13068111563_3" function="internal">
        <lane id=":13068111563_3_0" index="0" allow="pedestrian delivery bicycle" speed="4.67" length="5.92" shape="639.60,532.00 640.20,533.69 641.08,534.46 642.23,534.30 643.67,533.23"/>
    </edge>
    <edge id=":13068111563_4" function="internal">
        <lane id=":13068111563_4_0" index="0" allow="pedestrian delivery bicycle" speed="5.56" length="11.39" shape="639.60,532.00 640.16,535.68 640.13,538.73 639.52,541.13 638.31,542.90"/>
    </edge>
    <edge id=":13068111563_5" function="internal">
        <lane id=":13068111563_5_0" index="0" allow="pedestrian delivery bicycle" speed="3.65" length="4.67" shape="639.60,532.00 639.07,533.34 638.37,533.90 637.50,533.67 636.47,532.67"/>
    </edge>
    <edge id=":13068111563_6" function="internal">
        <lane id=":13068111563_6_0" index="0" allow="pedestrian delivery bicycle" speed="5.56" length="8.18" shape="636.09,540.59 636.76,539.48 637.05,537.78 636.95,535.51 636.47,532.67"/>
    </edge>
    <edge id=":13068111563_7" function="internal">
        <lane id=":13068111563_7_0" index="0" allow="pedestrian delivery bicycle" speed="5.56" length="10.57" shape="636.09,540.59 643.67,533.23"/>
    </edge>
    <edge id=":13068111563_8" function="internal">
        <lane id=":13068111563_8_0" index="0" allow="pedestrian delivery bicycle" speed="3.65" length="4.67" shape="636.09,540.59 637.51,540.34 638.35,540.63 638.62,541.49 638.31,542.90"/>
    </edge>
    <edge id=":13068111565_0" function="internal">
        <lane id=":13068111565_0_0" index="0" allow="pedestrian delivery bicycle" speed="3.65" length="4.67" shape="619.64,515.36 618.30,514.82 617.74,514.12 617.97,513.25 618.98,512.22"/>
    </edge>
    <edge id=":1312668928_0" function="internal">
        <lane id=":1312668928_0_0" index="0" disallow="tram rail_urban rail rail_electric rail_fast ship container cable_car subway aircraft wheelchair scooter drone" speed="27.78" length="13.39" shape="547.12,607.72 546.52,603.82 546.47,601.09 546.42,598.36 545.79,594.47"/>
        <lane id=":1312668928_0_1" index="1" disallow="tram rail_urban rail rail_electric rail_fast ship container cable_car subway aircraft wheelchair scooter drone" speed="27.78" length="13.39" shape="550.24,607.04 549.64,603.13 549.60,600.39 549.54,597.66 548.91,593.76"/>
        <lane id=":1312668928_0_2" index="2" disallow="tram rail_urban rail rail_electric rail_fast ship container cable_car subway aircraft wheelchair scooter drone" speed="27.78" length="13.39" shape="553.37,606.36 552.77,602.44 552.72,599.70 552.66,596.96 552.03,593.04"/>
    </edge>
    <edge id=":1312668928_3" function="internal">
        <lane id=":1312668928_3_0" index="0" disallow="tram rail_urban rail rail_electric rail_fast ship container cable_car subway aircraft wheelchair scooter drone" speed="6.03" length="7.27" shape="556.50,605.68 556.15,603.19 556.31,601.30 557.00,600.00 558.20,599.30"/>
        <lane id=":1312668928_3_1" index="1" disallow="tram rail_urban rail rail_electric rail_fast ship container cable_car subway aircraft wheelchair scooter drone" speed="5.00" length="4.68" shape="556.50,605.68 556.46,604.56 556.87,603.64 557.74,602.91 559.05,602.38"/>
    </edge>
    <edge id=":1312668928_5" function="internal">
        <lane id=":1312668928_5_0" index="0" disallow="tram rail_urban rail rail_electric rail_fast ship container cable_car subway aircraft wheelchair scooter drone" speed="25.00" length="16.01" shape="541.92,600.51 557.34,596.22"/>
        <lane id=":1312668928_5_1" index="1" disallow="tram rail_urban rail rail_electric rail_fast ship container cable_car subway aircraft wheelchair scooter drone" speed="25.00" length="16.01" shape="542.77,603.59 558.20,599.30"/>
        <lane id=":1312668928_5_2" index="2" disallow="tram rail_urban rail rail_electric rail_fast ship container cable_car subway aircraft wheelchair scooter drone" speed="25.00" length="16.01" shape="543.63,606.67 559.05,602.38"/>
    </edge>
    <edge id=":1312668940_0" function="internal">
        <lane id=":1312668940_0_0" index="0" disallow="tram rail_urban rail rail_electric rail_fast ship container cable_car subway aircraft wheelchair scooter drone" speed="16.67" length="13.25" shape="566.74,589.41 569.45,602.30"/>
        <lane id=":1312668940_0_1" index="1" disallow="tram rail_urban rail rail_electric rail_fast ship container cable_car subway aircraft wheelchair scooter drone" speed="16.67" length="13.25" shape="563.61,590.04 566.32,603.00"/>
        <lane id=":1312668940_0_2" index="2" disallow="tram rail_urban rail rail_electric rail_fast ship container cable_car subway aircraft wheelchair scooter drone" speed="16.67" length="13.25" shape="560.47,590.66 563.20,603.70"/>
    </edge>
    <edge id=":1312668940_3" function="internal">
        <lane id=":1312668940_3_0" index="0" disallow="tram rail_urban rail rail_electric rail_fast ship container cable_car subway aircraft wheelchair scooter drone" speed="25.00" length="13.79" shape="557.53,596.16 571.00,592.69"/>
        <lane id=":1312668940_3_1" index="1" disallow="tram rail_urban rail rail_electric rail_fast ship container cable_car subway aircraft wheelchair scooter drone" speed="25.00" length="13.79" shape="558.39,599.25 571.74,595.81"/>
        <lane id=":1312668940_3_2" index="2" disallow="tram rail_urban rail rail_electric rail_fast ship container cable_car subway aircraft wheelchair scooter drone" speed="25.00" length="13.79" shape="559.25,602.33 572.48,598.92"/>
    </edge>
    <edge id=":1312668940_6" function="internal">
        <lane id=":1312668940_6_0" index="0" disallow="tram rail_urban rail rail_electric rail_fast ship container cable_car subway aircraft wheelchair scooter drone" speed="5.97" length="7.74" shape="559.25,602.33 562.14,601.69 564.28,601.59 565.67,602.03 566.32,603.00"/>
        <lane id=":1312668940_6_1" index="1" disallow="tram rail_urban rail rail_electric rail_fast ship container cable_car subway aircraft wheelchair scooter drone" speed="4.87" length="4.77" shape="559.25,602.33 560.78,602.06 561.95,602.20 562.76,602.74 563.20,603.70"/>
    </edge>
    <edge id=":1720251725_0" function="internal">
        <lane id=":1720251725_0_0" index="0" disallow="tram rail_urban rail rail_electric rail_fast ship container cable_car subway aircraft wheelchair scooter drone" speed="25.00" length="13.27" shape="575.47,613.38 562.79,616.34"/>
        <lane id=":1720251725_0_1" index="1" disallow="tram rail_urban rail rail_electric rail_fast ship container cable_car subway aircraft wheelchair scooter drone" speed="25.00" length="13.27" shape="574.82,610.25 561.98,613.25"/>
        <lane id=":1720251725_0_2" index="2" disallow="tram rail_urban rail rail_electric rail_fast ship container cable_car subway aircraft wheelchair scooter drone" speed="25.00" length="13.27" shape="574.17,607.12 561.17,610.15"/>
        <lane id=":1720251725_0_3" index="3" disallow="tram rail_urban rail rail_electric rail_fast ship container cable_car subway aircraft wheelchair scooter drone" speed="25.00" length="13.27" shape="573.53,603.98 560.37,607.05"/>
    </edge>
    <edge id=":1720251725_4" function="internal">
        <lane id=":1720251725_4_0" index="0" disallow="tram rail_urban rail rail_electric rail_fast ship container cable_car subway aircraft wheelchair scooter drone" speed="16.67" length="15.92" shape="569.49,602.50 573.11,617.94"/>
        <lane id=":1720251725_4_1" index="1" disallow="tram rail_urban rail rail_electric rail_fast ship container cable_car subway aircraft wheelchair scooter drone" speed="16.67" length="15.92" shape="566.37,603.20 570.00,618.69"/>
        <lane id=":1720251725_4_2" index="2" disallow="tram rail_urban rail rail_electric rail_fast ship container cable_car subway aircraft wheelchair scooter drone" speed="16.67" length="15.92" shape="563.25,603.89 566.89,619.45"/>
    </edge>
    <edge id=":1720251725_7" function="internal">
        <lane id=":1720251725_7_0" index="0" disallow="tram rail_urban rail rail_electric rail_fast ship container cable_car subway aircraft wheelchair scooter drone" speed="6.01" length="7.34" shape="563.25,603.89 563.57,606.31 563.33,608.16 562.53,609.44 561.17,610.15"/>
        <lane id=":1720251725_7_1" index="1" disallow="tram rail_urban rail rail_electric rail_fast ship container cable_car subway aircraft wheelchair scooter drone" speed="5.01" length="4.79" shape="563.25,603.89 563.26,604.95 562.78,605.82 561.82,606.52 560.37,607.05"/>
    </edge>
    <edge id=":1720251748_0" function="internal">
        <lane id=":1720251748_0_0" index="0" disallow="tram rail_urban rail rail_electric rail_fast ship container cable_car subway aircraft wheelchair scooter drone" speed="27.78" length="15.37" shape="550.25,622.88 547.16,607.92"/>
        <lane id=":1720251748_0_1" index="1" disallow="tram rail_urban rail rail_electric rail_fast ship container cable_car subway aircraft wheelchair scooter drone" speed="27.78" length="15.37" shape="553.39,622.26 550.28,607.24"/>
        <lane id=":1720251748_0_2" index="2" disallow="tram rail_urban rail rail_electric rail_fast ship container cable_car subway aircraft wheelchair scooter drone" speed="27.78" length="15.37" shape="556.53,621.64 553.41,606.56"/>
        <lane id=":1720251748_0_3" index="3" disallow="tram rail_urban rail rail_electric rail_fast ship container cable_car subway aircraft wheelchair scooter drone" speed="27.78" length="15.37" shape="559.67,621.03 556.54,605.88"/>
    </edge>
    <edge id=":1720251748_4" function="internal">
        <lane id=":1720251748_4_0" index="0" disallow="tram rail_urban rail rail_electric rail_fast ship container cable_car subway aircraft wheelchair scooter drone" speed="25.00" length="17.77" shape="562.59,616.39 557.72,617.40 554.31,617.68 550.89,617.91 545.98,618.74"/>
        <lane id=":1720251748_4_1" index="1" disallow="tram rail_urban rail rail_electric rail_fast ship container cable_car subway aircraft wheelchair scooter drone" speed="25.00" length="17.77" shape="562.59,616.39 557.54,616.93 553.97,616.13 550.38,615.26 545.29,615.61"/>
        <lane id=":1720251748_4_2" index="2" disallow="tram rail_urban rail rail_electric rail_fast ship container cable_car subway aircraft wheelchair scooter drone" speed="25.00" length="17.77" shape="562.59,616.39 557.29,616.48 553.63,614.57 549.95,612.59 544.60,612.49"/>
    </edge>
    <edge id=":1720251748_7" function="internal">
        <lane id=":1720251748_7_0" index="0" disallow="tram rail_urban rail rail_electric rail_fast ship container cable_car subway aircraft wheelchair scooter drone" speed="8.08" length="14.94" shape="561.79,613.30 557.45,613.86 554.09,613.04 551.70,610.83 550.28,607.24"/>
        <lane id=":1720251748_7_1" index="1" disallow="tram rail_urban rail rail_electric rail_fast ship container cable_car subway aircraft wheelchair scooter drone" speed="6.61" length="9.64" shape="560.98,610.20 558.10,610.60 555.88,610.13 554.32,608.78 553.41,606.56"/>
        <lane id=":1720251748_7_2" index="2" disallow="tram rail_urban rail rail_electric rail_fast ship container cable_car subway aircraft wheelchair scooter drone" speed="4.70" length="4.35" shape="560.17,607.10 558.75,607.34 557.67,607.21 556.93,606.72 556.54,605.88"/>
    </edge>
    <edge id=":1720251903_0" function="internal">
        <lane id=":1720251903_0_0" index="0" disallow="tram rail_urban rail rail_electric rail_fast ship container cable_car subway aircraft wheelchair scooter drone" speed="9.10" length="7.58" shape="534.25,625.17 532.06,623.86 530.16,623.00 528.57,622.58 527.27,622.61"/>
    </edge>
    <edge id=":1720251903_1" function="internal">
        <lane id=":1720251903_1_0" index="0" disallow="tram rail_urban rail rail_electric rail_fast ship container cable_car subway aircraft wheelchair scooter drone" speed="27.78" length="7.96" shape="535.04,621.01 527.27,622.61"/>
        <lane id=":1720251903_1_1" index="1" disallow="tram rail_urban rail rail_electric rail_fast ship container cable_car subway aircraft wheelchair scooter drone" speed="27.78" length="7.96" shape="534.39,617.88 526.59,619.48"/>
        <lane id=":1720251903_1_2" index="2" disallow="tram rail_urban rail rail_electric rail_fast ship container cable_car subway aircraft wheelchair scooter drone" speed="27.78" length="7.96" shape="533.74,614.74 525.91,616.35"/>
    </edge>
    <edge id=":2221555465_0" function="internal">
        <lane id=":2221555465_0_0" index="0" allow="pedestrian delivery bicycle" speed="3.65" length="4.67" shape="697.10,422.64 698.06,421.57 698.91,421.29 699.65,421.80 700.26,423.10"/>
    </edge>
    <edge id=":2221555482_0" function="internal">
        <lane id=":2221555482_0_0" index="0" allow="pedestrian delivery bicycle" speed="3.65" length="4.67" shape="1008.45,331.68 1009.67,332.45 1010.09,333.24 1009.71,334.05 1008.53,334.88"/>
    </edge>
    <edge id=":2221555503_0" function="internal">
        <lane id=":2221555503_0_0" index="0" allow="pedestrian delivery bicycle" speed="5.56" length="7.91" shape="679.48,508.53 677.12,508.38 675.38,508.27 673.85,508.66 672.08,510.00"/>
    </edge>
    <edge id=":2221555503_1" function="internal">
        <lane id=":2221555503_1_0" index="0" allow="pedestrian delivery bicycle" speed="5.56" length="12.70" shape="679.48,508.53 675.78,508.00 673.68,506.45 673.19,503.89 674.31,500.32"/>
    </edge>
    <edge id=":2221555503_2" function="internal">
        <lane id=":2221555503_2_0" index="0" allow="pedestrian delivery bicycle" speed="3.65" length="4.67" shape="679.48,508.53 678.29,507.72 677.89,506.92 678.30,506.12 679.50,505.33"/>
    </edge>
    <edge id=":2221555503_3" function="internal">
        <lane id=":2221555503_3_0" index="0" allow="pedestrian delivery bicycle" speed="4.71" length="5.64" shape="677.20,501.68 676.71,503.27 676.92,504.41 677.86,505.09 679.50,505.33"/>
    </edge>
    <edge id=":2221555503_4" function="internal">
        <lane id=":2221555503_4_0" index="0" allow="pedestrian delivery bicycle" speed="5.56" length="9.87" shape="677.20,501.68 676.02,504.37 675.17,506.22 674.07,507.88 672.08,510.00"/>
    </edge>
    <edge id=":2221555503_5" function="internal">