<?xml version="1.0" encoding="UTF-8"?>
<routes xmlns:xsi="http://www.w3.org/2001/XMLSchema-instance" xsi:noNamespaceSchemaLocation="http://sumo.dlr.de/xsd/routes_file.xsd">
    
    <route id="r_N_S" edges="N2TL TL2S"/>
    <route id="r_N_E" edges="N2TL TL2E"/>
    <route id="r_N_W" edges="N2TL TL2W"/>

    <route id="r_S_N" edges="S2TL TL2N"/>
    <route id="r_S_W" edges="S2TL TL2W"/>
    <route id="r_S_E" edges="S2TL TL2E"/>

    <route id="r_E_W" edges="E2TL TL2W"/>
    <route id="r_E_S" edges="E2TL TL2S"/>
    <route id="r_E_N" edges="E2TL TL2N"/>

    <route id="r_W_E" edges="W2TL TL2E"/>
    <route id="r_W_N" edges="W2TL TL2N"/>
    <route id="r_W_S" edges="W2TL TL2S"/>

    <flow id="s1_N_S" begin="0" end="1920" route="r_N_S" vehsPerHour="27" departLane="best" departSpeed="max"/>
    <flow id="s1_N_E" begin="0" end="1920" route="r_N_E" vehsPerHour="11" departLane="best" departSpeed="max"/>
    <flow id="s1_N_W" begin="0" end="1920" route="r_N_W" vehsPerHour="9" departLane="best" departSpeed="max"/>
    
    <flow id="s1_S_N" begin="0" end="1920" route="r_S_N" vehsPerHour="29" departLane="best" departSpeed="max"/>
    <flow id="s1_S_W" begin="0" end="1920" route="r_S_W" vehsPerHour="12" departLane="best" departSpeed="max"/>
    <flow id="s1_S_E" begin="0" end="1920" route="r_S_E" vehsPerHour="8" departLane="best" departSpeed="max"/>

    <flow id="s1_E_W" begin="0" end="1920" route="r_E_W" vehsPerHour="25" departLane="best" departSpeed="max"/>
    <flow id="s1_E_S" begin="0" end="1920" route="r_E_S" vehsPerHour="14" departLane="best" departSpeed="max"/>
    <flow id="s1_E_N" begin="0" end="1920" route="r_E_N" vehsPerHour="10" departLane="best" departSpeed="max"/>

    <flow id="s1_W_E" begin="0" end="1920" route="r_W_E" vehsPerHour="31" departLane="best" departSpeed="max"/>
    <flow id="s1_W_N" begin="0" end="1920" route="r_W_N" vehsPerHour="13" departLane="best" departSpeed="max"/>
    <flow id="s1_W_S" begin="0" end="1920" route="r_W_S" vehsPerHour="9" departLane="best" departSpeed="max"/>


    <flow id="s2_N_S" begin="1920" end="3840" route="r_N_S" vehsPerHour="163" departLane="best" departSpeed="max"/>
    <flow id="s2_N_E" begin="1920" end="3840" route="r_N_E" vehsPerHour="47" departLane="best" departSpeed="max"/>
    <flow id="s2_N_W" begin="1920" end="3840" route="r_N_W" vehsPerHour="33" departLane="best" departSpeed="max"/>

    <flow id="s2_S_N" begin="1920" end="3840" route="r_S_N" vehsPerHour="22" departLane="best" departSpeed="max"/>
    <flow id="s2_S_W" begin="1920" end="3840" route="r_S_W" vehsPerHour="11" departLane="best" departSpeed="max"/>
    <flow id="s2_S_E" begin="1920" end="3840" route="r_S_E" vehsPerHour="8" departLane="best" departSpeed="max"/>

    <flow id="s2_E_W" begin="1920" end="3840" route="r_E_W" vehsPerHour="35" departLane="best" departSpeed="max"/>
    <flow id="s2_E_S" begin="1920" end="3840" route="r_E_S" vehsPerHour="12" departLane="best" departSpeed="max"/>
    <flow id="s2_E_N" begin="1920" end="3840" route="r_E_N" vehsPerHour="14" departLane="best" departSpeed="max"/>

    <flow id="s2_W_E" begin="1920" end="3840" route="r_W_E" vehsPerHour="38" departLane="best" departSpeed="max"/>
    <flow id="s2_W_N" begin="1920" end="3840" route="r_W_N" vehsPerHour="15" departLane="best" departSpeed="max"/>
    <flow id="s2_W_S" begin="1920" end="3840" route="r_W_S" vehsPerHour="11" departLane="best" departSpeed="max"/>


    <flow id="s3_N_S" begin="3840" end="5760" route="r_N_S" vehsPerHour="25" departLane="best" departSpeed="max"/>
    <flow id="s3_N_E" begin="3840" end="5760" route="r_N_E" vehsPerHour="10" departLane="best" departSpeed="max"/>
    <flow id="s3_N_W" begin="3840" end="5760" route="r_N_W" vehsPerHour="10" departLane="best" departSpeed="max"/>
    
    <flow id="s3_S_N" begin="3840" end="5760" route="r_S_N" vehsPerHour="31" departLane="best" departSpeed="max"/>
    <flow id="s3_S_W" begin="3840" end="5760" route="r_S_W" vehsPerHour="14" departLane="best" departSpeed="max"/>
    <flow id="s3_S_E" begin="3840" end="5760" route="r_S_E" vehsPerHour="8" departLane="best" departSpeed="max"/>

    <flow id="s3_E_W" begin="3840" end="5760" route="r_E_W" vehsPerHour="28" departLane="best" departSpeed="max"/>
    <flow id="s3_E_S" begin="3840" end="5760" route="r_E_S" vehsPerHour="11" departLane="best" departSpeed="max"/>
    <flow id="s3_E_N" begin="3840" end="5760" route="r_E_N" vehsPerHour="9" departLane="best" departSpeed="max"/>

    <flow id="s3_W_E" begin="3840" end="5760" route="r_W_E" vehsPerHour="22" departLane="best" departSpeed="max"/>
    <flow id="s3_W_N" begin="3840" end="5760" route="r_W_N" vehsPerHour="15" departLane="best" departSpeed="max"/>
    <flow id="s3_W_S" begin="3840" end="5760" route="r_W_S" vehsPerHour="7" departLane="best" departSpeed="max"/>


    <flow id="s4_N_S" begin="5760" end="7680" route="r_N_S" vehsPerHour="33" departLane="best" departSpeed="max"/>
    <flow id="s4_N_E" begin="5760" end="7680" route="r_N_E" vehsPerHour="11" departLane="best" departSpeed="max"/>
    <flow id="s4_N_W" begin="5760" end="7680" route="r_N_W" vehsPerHour="9" departLane="best" departSpeed="max"/>

    <flow id="s4_S_N" begin="5760" end="7680" route="r_S_N" vehsPerHour="28" departLane="best" departSpeed="max"/>
    <flow id="s4_S_W" begin="5760" end="7680" route="r_S_W" vehsPerHour="14" departLane="best" departSpeed="max"/>
    <flow id="s4_S_E" begin="5760" end="7680" route="r_S_E" vehsPerHour="10" departLane="best" departSpeed="max"/>

    <flow id="s4_E_W" begin="5760" end="7680" route="r_E_W" vehsPerHour="26" departLane="best" departSpeed="max"/>
    <flow id="s4_E_S" begin="5760" end="7680" route="r_E_S" vehsPerHour="11" departLane="best" departSpeed="max"/>
    <flow id="s4_E_N" begin="5760" end="7680" route="r_E_N" vehsPerHour="8" departLane="best" departSpeed="max"/>

    <flow id="s4_W_E" begin="5760" end="7680" route="r_W_E" vehsPerHour="174" departLane="best" departSpeed="max"/>
    <flow id="s4_W_N" begin="5760" end="7680" route="r_W_N" vehsPerHour="52" departLane="best" departSpeed="max"/>
    <flow id="s4_W_S" begin="5760" end="7680" route="r_W_S" vehsPerHour="38" departLane="best" departSpeed="max"/>

</routes>