<?xml version="1.0" encoding="UTF-8"?>
<routes xmlns:xsi="http://www.w3.org/2001/XMLSchema-instance" xsi:noNamespaceSchemaLocation="http://sumo.dlr.de/xsd/routes_file.xsd">
    <route id="r_E2N" edges="E2TL TL2N"/>
    <route id="r_E2S" edges="E2TL TL2S"/>
    <route id="r_E2W" edges="E2TL TL2W"/>
    <route id="r_N2E" edges="N2TL TL2E"/>
    <route id="r_N2S" edges="N2TL TL2S"/>
    <route id="r_N2W" edges="N2TL TL2W"/>
    <route id="r_S2E" edges="S2TL TL2E"/>
    <route id="r_S2N" edges="S2TL TL2N"/>
    <route id="r_S2W" edges="S2TL TL2W"/>
    <route id="r_W2E" edges="W2TL TL2E"/>
    <route id="r_W2N" edges="W2TL TL2N"/>
    <route id="r_W2S" edges="W2TL TL2S"/>

    <flow id="p1_N" begin="0" end="1920" route="r_N2S" vehsPerHour="28" departLane="best" departSpeed="max"/>
    <flow id="p1_S" begin="0" end="1920" route="r_S2N" vehsPerHour="38" departLane="best" departSpeed="max"/>
    <flow id="p1_E" begin="0" end="1920" route="r_E2W" vehsPerHour="30" departLane="best" departSpeed="max"/>
    <flow id="p1_W" begin="0" end="1920" route="r_W2E" vehsPerHour="25" departLane="best" departSpeed="max"/>

    <flow id="p2_N" begin="1920" end="3840" route="r_N2S" vehsPerHour="123" departLane="best" departSpeed="max"/>
    <flow id="p2_W" begin="1920" end="3840" route="r_W2E" vehsPerHour="177" departLane="best" departSpeed="max"/>
    <flow id="p2_S" begin="1920" end="3840" route="r_S2N" vehsPerHour="41" departLane="best" departSpeed="max"/>
    <flow id="p2_E" begin="1920" end="3840" route="r_E2W" vehsPerHour="36" departLane="best" departSpeed="max"/>

    <flow id="p3_N" begin="3840" end="5760" route="r_N2S" vehsPerHour="200" departLane="best" departSpeed="max"/>
    <flow id="p3_S" begin="3840" end="5760" route="r_S2N" vehsPerHour="204" departLane="best" departSpeed="max"/>
    <flow id="p3_E" begin="3840" end="5760" route="r_E2W" vehsPerHour="226" departLane="best" departSpeed="max"/>
    <flow id="p3_W" begin="3840" end="5760" route="r_W2E" vehsPerHour="222" departLane="best" departSpeed="max"/>

    <flow id="p4_S" begin="5760" end="7680" route="r_S2N" vehsPerHour="168" departLane="best" departSpeed="max"/>
    <flow id="p4_E" begin="5760" end="7680" route="r_E2W" vehsPerHour="111" departLane="best" departSpeed="max"/>
    <flow id="p4_N" begin="5760" end="7680" route="r_N2S" vehsPerHour="48" departLane="best" departSpeed="max"/>
    <flow id="p4_W" begin="5760" end="7680" route="r_W2E" vehsPerHour="56" departLane="best" departSpeed="max"/>
</routes>