<?xml version="1.0" encoding="UTF-8"?>
<routes xmlns:xsi="http://www.w3.org/2001/XMLSchema-instance" xsi:noNamespaceSchemaLocation="http://sumo.dlr.de/xsd/routes_file.xsd">
    <vType id="motorcycle" vClass="motorcycle" length="2.0" width="0.8" maxSpeed="13.89" accel="3.5" decel="4.0" sigma="0.8" minGap="0.5"/>
    <vType id="passenger" vClass="passenger" length="4.5" width="1.8" maxSpeed="13.89" accel="2.5" decel="4.5" sigma="0.3" minGap="2.0"/>
    <vType id="bus" vClass="bus" length="12.0" width="2.5" maxSpeed="10.0" accel="1.2" decel="2.5" sigma="0.1" minGap="2.5"/>

    <flow id="flow_N_stage1_moto" from="N2TL" begin="0" end="1920" vehsPerHour="42.5" type="motorcycle" departLane="best" departSpeed="max"/>
    <flow id="flow_N_stage1_car" from="N2TL" begin="0" end="1920" vehsPerHour="6.0" type="passenger" departLane="best" departSpeed="max"/>
    <flow id="flow_N_stage1_bus" from="N2TL" begin="0" end="1920" vehsPerHour="1.5" type="bus" departLane="best" departSpeed="max"/>

    <flow id="flow_N_stage2_moto" from="N2TL" begin="1920" end="3840" vehsPerHour="127.5" type="motorcycle" departLane="best" departSpeed="max"/>
    <flow id="flow_N_stage2_car" from="N2TL" begin="1920" end="3840" vehsPerHour="18.0" type="passenger" departLane="best" departSpeed="max"/>
    <flow id="flow_N_stage2_bus" from="N2TL" begin="1920" end="3840" vehsPerHour="4.5" type="bus" departLane="best" departSpeed="max"/>

    <flow id="flow_N_stage3_moto" from="N2TL" begin="3840" end="5760" vehsPerHour="42.5" type="motorcycle" departLane="best" departSpeed="max"/>
    <flow id="flow_N_stage3_car" from="N2TL" begin="3840" end="5760" vehsPerHour="6.0" type="passenger" departLane="best" departSpeed="max"/>
    <flow id="flow_N_stage3_bus" from="N2TL" begin="3840" end="5760" vehsPerHour="1.5" type="bus" departLane="best" departSpeed="max"/>

    <flow id="flow_N_stage4_moto" from="N2TL" begin="5760" end="7680" vehsPerHour="127.5" type="motorcycle" departLane="best" departSpeed="max"/>
    <flow id="flow_N_stage4_car" from="N2TL" begin="5760" end="7680" vehsPerHour="18.0" type="passenger" departLane="best" departSpeed="max"/>
    <flow id="flow_N_stage4_bus" from="N2TL" begin="5760" end="7680" vehsPerHour="4.5" type="bus" departLane="best" departSpeed="max"/>

    <flow id="flow_S_stage1_moto" from="S2TL" begin="0" end="1920" vehsPerHour="42.5" type="motorcycle" departLane="best" departSpeed="max"/>
    <flow id="flow_S_stage1_car" from="S2TL" begin="0" end="1920" vehsPerHour="6.0" type="passenger" departLane="best" departSpeed="max"/>
    <flow id="flow_S_stage1_bus" from="S2TL" begin="0" end="1920" vehsPerHour="1.5" type="bus" departLane="best" departSpeed="max"/>

    <flow id="flow_S_stage2_moto" from="S2TL" begin="1920" end="3840" vehsPerHour="127.5" type="motorcycle" departLane="best" departSpeed="max"/>
    <flow id="flow_S_stage2_car" from="S2TL" begin="1920" end="3840" vehsPerHour="18.0" type="passenger" departLane="best" departSpeed="max"/>
    <flow id="flow_S_stage2_bus" from="S2TL" begin="1920" end="3840" vehsPerHour="4.5" type="bus" departLane="best" departSpeed="max"/>

    <flow id="flow_S_stage3_moto" from="S2TL" begin="3840" end="5760" vehsPerHour="42.5" type="motorcycle" departLane="best" departSpeed="max"/>
    <flow id="flow_S_stage3_car" from="S2TL" begin="3840" end="5760" vehsPerHour="6.0" type="passenger" departLane="best" departSpeed="max"/>
    <flow id="flow_S_stage3_bus" from="S2TL" begin="3840" end="5760" vehsPerHour="1.5" type="bus" departLane="best" departSpeed="max"/>

    <flow id="flow_S_stage4_moto" from="S2TL" begin="5760" end="7680" vehsPerHour="127.5" type="motorcycle" departLane="best" departSpeed="max"/>
    <flow id="flow_S_stage4_car" from="S2TL" begin="5760" end="7680" vehsPerHour="18.0" type="passenger" departLane="best" departSpeed="max"/>
    <flow id="flow_S_stage4_bus" from="S2TL" begin="5760" end="7680" vehsPerHour="4.5" type="bus" departLane="best" departSpeed="max"/>

    <flow id="flow_E_stage1_moto" from="E2TL" begin="0" end="1920" vehsPerHour="42.5" type="motorcycle" departLane="best" departSpeed="max"/>
    <flow id="flow_E_stage1_car" from="E2TL" begin="0" end="1920" vehsPerHour="6.0" type="passenger" departLane="best" departSpeed="max"/>
    <flow id="flow_E_stage1_bus" from="E2TL" begin="0" end="1920" vehsPerHour="1.5" type="bus" departLane="best" departSpeed="max"/>

    <flow id="flow_E_stage2_moto" from="E2TL" begin="1920" end="3840" vehsPerHour="127.5" type="motorcycle" departLane="best" departSpeed="max"/>
    <flow id="flow_E_stage2_car" from="E2TL" begin="1920" end="3840" vehsPerHour="18.0" type="passenger" departLane="best" departSpeed="max"/>
    <flow id="flow_E_stage2_bus" from="E2TL" begin="1920" end="3840" vehsPerHour="4.5" type="bus" departLane="best" departSpeed="max"/>

    <flow id="flow_E_stage3_moto" from="E2TL" begin="3840" end="5760" vehsPerHour="42.5" type="motorcycle" departLane="best" departSpeed="max"/>
    <flow id="flow_E_stage3_car" from="E2TL" begin="3840" end="5760" vehsPerHour="6.0" type="passenger" departLane="best" departSpeed="max"/>
    <flow id="flow_E_stage3_bus" from="E2TL" begin="3840" end="5760" vehsPerHour="1.5" type="bus" departLane="best" departSpeed="max"/>

    <flow id="flow_E_stage4_moto" from="E2TL" begin="5760" end="7680" vehsPerHour="127.5" type="motorcycle" departLane="best" departSpeed="max"/>
    <flow id="flow_E_stage4_car" from="E2TL" begin="5760" end="7680" vehsPerHour="18.0" type="passenger" departLane="best" departSpeed="max"/>
    <flow id="flow_E_stage4_bus" from="E2TL" begin="5760" end="7680" vehsPerHour="4.5" type="bus" departLane="best" departSpeed="max"/>

    <flow id="flow_W_stage1_moto" from="W2TL" begin="0" end="1920" vehsPerHour="42.5" type="motorcycle" departLane="best" departSpeed="max"/>
    <flow id="flow_W_stage1_car" from="W2TL" begin="0" end="1920" vehsPerHour="6.0" type="passenger" departLane="best" departSpeed="max"/>
    <flow id="flow_W_stage1_bus" from="W2TL" begin="0" end="1920" vehsPerHour="1.5" type="bus" departLane="best" departSpeed="max"/>

    <flow id="flow_W_stage2_moto" from="W2TL" begin="1920" end="3840" vehsPerHour="127.5" type="motorcycle" departLane="best" departSpeed="max"/>
    <flow id="flow_W_stage2_car" from="W2TL" begin="1920" end="3840" vehsPerHour="18.0" type="passenger" departLane="best" departSpeed="max"/>
    <flow id="flow_W_stage2_bus" from="W2TL" begin="1920" end="3840" vehsPerHour="4.5" type="bus" departLane="best" departSpeed="max"/>

    <flow id="flow_W_stage3_moto" from="W2TL" begin="3840" end="5760" vehsPerHour="42.5" type="motorcycle" departLane="best" departSpeed="max"/>
    <flow id="flow_W_stage3_car" from="W2TL" begin="3840" end="5760" vehsPerHour="6.0" type="passenger" departLane="best" departSpeed="max"/>
    <flow id="flow_W_stage3_bus" from="W2TL" begin="3840" end="5760" vehsPerHour="1.5" type="bus" departLane="best" departSpeed="max"/>

    <flow id="flow_W_stage4_moto" from="W2TL" begin="5760" end="7680" vehsPerHour="127.5" type="motorcycle" departLane="best" departSpeed="max"/>
    <flow id="flow_W_stage4_car" from="W2TL" begin="5760" end="7680" vehsPerHour="18.0" type="passenger" departLane="best" departSpeed="max"/>
    <flow id="flow_W_stage4_bus" from="W2TL" begin="5760" end="7680" vehsPerHour="4.5" type="bus" departLane="best" departSpeed="max"/>
</routes>